* C:\Users\beade\Documents\ITBA\ELECTROTECNIA\tp_final_electrotecnia\Altium\TP_Integrador\Draft1.asc
V1 N001 0 {VCC}
.step param VCC 0 10 1
.op
.backanno
.end
